Version 4
SHEET 1 1200 1172
WIRE 96 -208 32 -208
WIRE 240 -208 160 -208
WIRE -112 -96 -176 -96
WIRE 32 -96 32 -208
WIRE 32 -96 -32 -96
WIRE 96 -96 32 -96
WIRE 240 -96 240 -208
WIRE 240 -96 176 -96
WIRE -176 -64 -176 -96
WIRE 160 -16 144 -16
WIRE 240 -16 240 -96
WIRE 240 -16 224 -16
WIRE 144 48 144 -16
WIRE 192 48 144 48
WIRE 192 64 192 48
WIRE 192 144 192 128
WIRE 128 176 128 144
WIRE 144 176 144 48
WIRE 32 192 32 -96
WIRE 96 192 32 192
WIRE 240 208 240 -16
WIRE 240 208 160 208
WIRE 288 208 240 208
WIRE -112 224 -336 224
WIRE 96 224 -32 224
WIRE -336 272 -336 224
WIRE 128 272 128 240
WIRE -336 368 -336 352
WIRE 128 400 128 368
WIRE 240 400 240 368
WIRE 128 512 128 480
WIRE 240 512 240 480
FLAG 240 512 0
FLAG -176 -64 0
FLAG -336 368 0
FLAG 288 208 out
IOPIN 288 208 Out
FLAG 128 512 0
FLAG -336 224 in
FLAG 128 144 v+
FLAG 128 272 v-
FLAG 128 368 v-
FLAG 240 368 v+
FLAG 192 144 0
SYMBOL voltage 240 384 R0
WINDOW 123 0 0 Left 0
WINDOW 39 0 0 Left 0
SYMATTR InstName V1
SYMATTR Value 15
SYMBOL voltage 128 384 R0
WINDOW 123 0 0 Left 0
WINDOW 39 0 0 Left 0
SYMATTR InstName V2
SYMATTR Value -15
SYMBOL res -16 -112 R90
WINDOW 0 0 56 VBottom 2
WINDOW 3 32 56 VTop 2
SYMATTR InstName R2
SYMATTR Value 100
SYMBOL voltage -336 256 R0
WINDOW 3 -102 157 Left 2
WINDOW 123 0 0 Left 0
WINDOW 39 0 0 Left 0
SYMATTR Value PULSE(-0.1 0.1 0 10ns 10ns 5us 10us)
SYMATTR InstName V3
SYMBOL cap 160 -224 R90
WINDOW 0 0 32 VBottom 2
WINDOW 3 32 32 VTop 2
SYMATTR InstName C1
SYMATTR Value 10p
SYMBOL res 192 -112 R90
WINDOW 0 0 56 VBottom 2
WINDOW 3 32 56 VTop 2
SYMATTR InstName R1
SYMATTR Value 1k
SYMBOL res -128 240 R270
WINDOW 0 32 56 VTop 2
WINDOW 3 0 56 VBottom 2
SYMATTR InstName R3
SYMATTR Value 100
SYMBOL cap 160 0 R270
WINDOW 0 32 32 VTop 2
WINDOW 3 0 32 VBottom 2
SYMATTR InstName C2
SYMATTR Value 10p
SYMBOL xopamp_c1 128 144 R0
WINDOW 0 32 32 Left 2
WINDOW 3 27 97 Left 2
SYMATTR InstName U1
SYMATTR Value AD797A
SYMBOL cap 176 64 R0
SYMATTR InstName C3
SYMATTR Value 1f
TEXT -320 -480 Left 2 !.tran 0 50u 0 5n
TEXT 8 -480 Left 2 !.lib ad797.cir
TEXT -320 -440 Left 2 !.options plotwinsize=0
TEXT 8 -448 Left 2 !.lib ad797a.cir
TEXT 8 -416 Left 2 !.lib ad797b.cir
TEXT 8 -384 Left 2 !.lib ad797s.cir
