Version 4
SHEET 1 5268 2404
WIRE 176 320 -1328 320
WIRE -1776 432 -1776 416
WIRE -1776 432 -1856 432
WIRE -1856 464 -1856 432
WIRE -1776 464 -1776 432
WIRE -1088 512 -1248 512
WIRE -992 512 -1088 512
WIRE -656 512 -656 448
WIRE -656 512 -992 512
WIRE -304 512 -656 512
WIRE 48 512 -304 512
WIRE -1088 528 -1088 512
WIRE -992 544 -992 512
WIRE -992 656 -992 624
WIRE -1088 704 -1088 656
WIRE -1056 704 -1088 704
WIRE -1088 752 -1088 704
WIRE -448 832 -816 832
WIRE -96 832 -448 832
WIRE -1088 880 -1088 832
WIRE -656 880 -656 512
WIRE -304 880 -304 512
WIRE 48 880 48 512
WIRE -1200 960 -1296 960
WIRE -1056 960 -1136 960
WIRE -992 960 -992 752
WIRE -896 960 -992 960
WIRE -816 960 -816 832
WIRE -816 960 -896 960
WIRE -784 960 -816 960
WIRE -448 960 -448 832
WIRE -432 960 -448 960
WIRE -96 960 -96 832
WIRE -80 960 -96 960
WIRE -992 1008 -992 960
WIRE -656 1008 -656 976
WIRE -304 1008 -304 976
WIRE 48 1008 48 976
WIRE -1744 1024 -1808 1024
WIRE -1664 1024 -1680 1024
WIRE -1568 1024 -1584 1024
WIRE -1552 1024 -1568 1024
WIRE -1328 1024 -1328 320
WIRE -1328 1024 -1472 1024
WIRE -896 1024 -896 960
WIRE -1248 1056 -1248 512
WIRE -816 1088 -816 960
WIRE -768 1088 -816 1088
WIRE -1568 1104 -1568 1024
WIRE -1296 1104 -1296 960
WIRE -1296 1104 -1568 1104
WIRE -1264 1104 -1296 1104
WIRE -816 1104 -816 1088
WIRE 320 1104 288 1104
WIRE 432 1104 400 1104
WIRE -1056 1136 -1056 960
WIRE -1056 1136 -1104 1136
WIRE -992 1136 -992 1088
WIRE -992 1136 -1056 1136
WIRE -896 1136 -896 1088
WIRE -896 1136 -992 1136
WIRE -656 1136 -656 1088
WIRE -304 1136 -304 1088
WIRE -304 1136 -656 1136
WIRE 48 1136 48 1088
WIRE 48 1136 -304 1136
WIRE 176 1136 176 320
WIRE 176 1136 48 1136
WIRE 288 1136 288 1104
WIRE 288 1136 176 1136
WIRE 432 1136 432 1104
WIRE 528 1136 432 1136
WIRE -768 1152 -768 1088
WIRE -1264 1168 -1568 1168
WIRE -992 1184 -992 1136
WIRE -896 1184 -896 1136
WIRE -656 1184 -656 1136
WIRE -304 1184 -304 1136
WIRE 48 1184 48 1136
WIRE 528 1184 528 1136
WIRE 288 1200 288 1136
WIRE 320 1200 288 1200
WIRE 432 1200 432 1136
WIRE 432 1200 400 1200
WIRE -1744 1248 -1808 1248
WIRE -1664 1248 -1680 1248
WIRE -1568 1248 -1568 1168
WIRE -1568 1248 -1584 1248
WIRE -1552 1248 -1568 1248
WIRE -1408 1248 -1472 1248
WIRE -1408 1280 -1408 1248
WIRE -656 1296 -656 1264
WIRE -304 1296 -304 1264
WIRE 48 1296 48 1264
WIRE -992 1312 -992 1264
WIRE -896 1312 -896 1248
WIRE -896 1312 -992 1312
WIRE -816 1312 -816 1184
WIRE -816 1312 -896 1312
WIRE -784 1312 -816 1312
WIRE -432 1312 -448 1312
WIRE -80 1312 -96 1312
WIRE 528 1312 528 1264
WIRE -1088 1408 -1088 1360
WIRE -816 1440 -816 1312
WIRE -448 1440 -448 1312
WIRE -448 1440 -816 1440
WIRE -96 1440 -96 1312
WIRE -96 1440 -448 1440
WIRE -992 1488 -992 1312
WIRE -1088 1536 -1088 1488
WIRE -1056 1536 -1088 1536
WIRE -1088 1600 -1088 1536
WIRE -992 1632 -992 1584
WIRE -1248 1744 -1248 1216
WIRE -1088 1744 -1088 1728
WIRE -1088 1744 -1248 1744
WIRE -992 1744 -992 1712
WIRE -992 1744 -1088 1744
WIRE -656 1744 -656 1392
WIRE -656 1744 -992 1744
WIRE -304 1744 -304 1392
WIRE -304 1744 -656 1744
WIRE 48 1744 48 1392
WIRE 48 1744 -304 1744
WIRE -656 1824 -656 1744
FLAG 528 1312 0
FLAG -1776 704 Sig+
FLAG -1776 784 Sig-
FLAG -1776 336 +VLR
FLAG -1776 544 -VLR
FLAG -656 448 +VLR
FLAG -656 1824 -VLR
FLAG -1856 464 0
FLAG -1408 1280 0
FLAG -1808 1024 Sig-
FLAG -1808 1248 Sig+
FLAG -1088 880 0
FLAG -1088 1360 0
SYMBOL res 512 1168 R0
SYMATTR InstName R7
SYMATTR Value 4
SYMBOL ind 304 1120 R270
WINDOW 0 32 56 VTop 2
WINDOW 3 5 56 VBottom 2
SYMATTR InstName L1
SYMATTR Value 0.75µH
SYMBOL voltage -1776 688 R0
WINDOW 39 24 124 Left 2
SYMATTR SpiceLine Rser=0.5
SYMATTR Value2 AC 1.0 0
SYMATTR InstName V4
SYMATTR Value SINE(0 1.5 25k)
SYMBOL voltage -1776 320 R0
WINDOW 123 0 0 Left 0
WINDOW 39 24 124 Left 2
SYMATTR SpiceLine Rser=0.1
SYMATTR InstName V1
SYMATTR Value 60
SYMBOL voltage -1776 448 R0
WINDOW 123 0 0 Left 0
WINDOW 39 24 124 Left 2
SYMATTR SpiceLine Rser=0.1
SYMATTR InstName V2
SYMATTR Value 60
SYMBOL res 416 1184 R90
WINDOW 0 0 56 VBottom 2
WINDOW 3 32 56 VTop 2
SYMATTR InstName R3
SYMATTR Value 3.3
SYMBOL nmos -704 880 R0
SYMATTR InstName M1
SYMATTR Value IRFP240
SYMBOL pmos -704 1392 M180
SYMATTR InstName M2
SYMATTR Value IRFP9240
SYMBOL res -672 1168 R0
SYMATTR InstName R10
SYMATTR Value 0.22
SYMBOL res -672 992 R0
SYMATTR InstName R9
SYMATTR Value 0.22
SYMBOL nmos -352 880 R0
SYMATTR InstName M3
SYMATTR Value IRFP240
SYMBOL pmos -352 1392 M180
SYMATTR InstName M4
SYMATTR Value IRFP9240
SYMBOL res -320 1168 R0
SYMATTR InstName R18
SYMATTR Value 0.22
SYMBOL res -320 992 R0
SYMATTR InstName R19
SYMATTR Value 0.22
SYMBOL res -336 944 R90
WINDOW 0 0 56 VBottom 2
WINDOW 3 32 56 VTop 2
SYMATTR InstName R14
SYMATTR Value 220
SYMBOL res -336 1296 R90
WINDOW 0 0 56 VBottom 2
WINDOW 3 32 56 VTop 2
SYMATTR InstName R15
SYMATTR Value 220
SYMBOL res -688 1296 R90
WINDOW 0 0 56 VBottom 2
WINDOW 3 32 56 VTop 2
SYMATTR InstName R24
SYMATTR Value 220
SYMBOL res -688 944 R90
WINDOW 0 0 56 VBottom 2
WINDOW 3 32 56 VTop 2
SYMATTR InstName R25
SYMATTR Value 220
SYMBOL nmos 0 880 R0
SYMATTR InstName M5
SYMATTR Value IRFP240
SYMBOL pmos 0 1392 M180
SYMATTR InstName M6
SYMATTR Value IRFP9240
SYMBOL res 32 1168 R0
SYMATTR InstName R26
SYMATTR Value 0.22
SYMBOL res 32 992 R0
SYMATTR InstName R27
SYMATTR Value 0.22
SYMBOL res 16 944 R90
WINDOW 0 0 56 VBottom 2
WINDOW 3 32 56 VTop 2
SYMATTR InstName R32
SYMATTR Value 220
SYMBOL res 16 1296 R90
WINDOW 0 0 56 VBottom 2
WINDOW 3 32 56 VTop 2
SYMATTR InstName R36
SYMATTR Value 220
SYMBOL res -1008 992 R0
SYMATTR InstName R4
SYMATTR Value 2.2k
SYMBOL res -1008 1168 R0
SYMATTR InstName R5
SYMATTR Value 2.2k
SYMBOL polcap -912 1024 R0
WINDOW 3 24 56 Left 2
SYMATTR Value 10µF
SYMATTR InstName C3
SYMATTR Description Capacitor
SYMATTR Type cap
SYMATTR SpiceLine V=50
SYMBOL polcap -912 1184 R0
WINDOW 3 24 56 Left 2
SYMATTR Value 10µF
SYMATTR InstName C7
SYMATTR Description Capacitor
SYMATTR Type cap
SYMATTR SpiceLine V=50
SYMBOL pot -832 1088 R0
WINDOW 0 119 100 Right 2
WINDOW 3 -615 -789 Right 2
SYMATTR InstName 5k-10T
SYMATTR Value Rtot=5K wiper=0.615
SYMBOL OpAmps\\LTC6090-5 -1200 1136 R0
SYMATTR InstName U1
SYMBOL res -1456 1008 R90
WINDOW 0 70 60 VBottom 2
WINDOW 3 -30 54 VTop 2
SYMATTR InstName R12
SYMATTR Value 100k
SYMATTR SpiceLine tol=1
SYMBOL res -1456 1232 R90
WINDOW 0 0 56 VBottom 2
WINDOW 3 32 56 VTop 2
SYMATTR InstName R13
SYMATTR Value 100k
SYMATTR SpiceLine tol=1
SYMBOL cap -1680 1008 R90
WINDOW 0 0 32 VBottom 2
WINDOW 3 32 32 VTop 2
SYMATTR InstName C4
SYMATTR Value 100µF
SYMBOL cap -1680 1232 R90
WINDOW 0 0 32 VBottom 2
WINDOW 3 32 32 VTop 2
SYMATTR InstName C5
SYMATTR Value 100µF
SYMBOL res -1568 1008 R90
WINDOW 0 0 56 VBottom 2
WINDOW 3 32 56 VTop 2
SYMATTR InstName R16
SYMATTR Value 3.3k
SYMBOL res -1568 1232 R90
WINDOW 0 0 56 VBottom 2
WINDOW 3 32 56 VTop 2
SYMATTR InstName R17
SYMATTR Value 3.3k
SYMBOL cap -1136 944 R90
WINDOW 0 0 32 VBottom 2
WINDOW 3 32 32 VTop 2
SYMATTR InstName C1
SYMATTR Value 15pF
SYMBOL npn -1056 1488 R0
SYMATTR InstName Q3
SYMATTR Value 2SC4883A
SYMBOL pnp -1056 752 M180
SYMATTR InstName Q4
SYMATTR Value 2SA1859A
SYMBOL diode -1104 1664 R0
WINDOW 3 -116 57 Left 2
SYMATTR Value 1N4148
SYMATTR InstName D2
SYMBOL diode -1104 528 R0
WINDOW 3 -99 62 Left 2
SYMATTR Value 1N4148
SYMATTR InstName D4
SYMBOL res -1008 528 R0
SYMATTR InstName R6
SYMATTR Value 150
SYMBOL res -1008 1616 R0
SYMATTR InstName R8
SYMATTR Value 150
SYMBOL diode -1104 592 R0
WINDOW 3 -99 62 Left 2
SYMATTR Value 1N4148
SYMATTR InstName D1
SYMBOL diode -1104 1600 R0
WINDOW 3 -116 57 Left 2
SYMATTR Value 1N4148
SYMATTR InstName D3
SYMBOL res -1104 736 R0
SYMATTR InstName R1
SYMATTR Value 22k
SYMBOL res -1104 1392 R0
SYMATTR InstName R2
SYMATTR Value 22k
TEXT -1824 216 Left 2 !.tran 1m
TEXT -1664 216 Left 2 !;ac lin 10m 20 20k
