Version 4
SHEET 1 5268 2404
WIRE -816 320 -816 304
WIRE -816 320 -896 320
WIRE -896 352 -896 320
WIRE -816 352 -816 320
WIRE 16 592 -1328 592
WIRE -992 752 -1248 752
WIRE -656 752 -656 688
WIRE -656 752 -992 752
WIRE -384 752 -656 752
WIRE -112 752 -384 752
WIRE -992 800 -992 752
WIRE -528 832 -816 832
WIRE -256 832 -528 832
WIRE -656 880 -656 752
WIRE -384 880 -384 752
WIRE -112 880 -112 752
WIRE -1200 960 -1296 960
WIRE -1056 960 -1136 960
WIRE -992 960 -992 880
WIRE -896 960 -992 960
WIRE -816 960 -816 832
WIRE -816 960 -896 960
WIRE -784 960 -816 960
WIRE -528 960 -528 832
WIRE -512 960 -528 960
WIRE -256 960 -256 832
WIRE -240 960 -256 960
WIRE -992 1008 -992 960
WIRE -656 1008 -656 976
WIRE -384 1008 -384 976
WIRE -112 1008 -112 976
WIRE -1744 1024 -1808 1024
WIRE -1664 1024 -1680 1024
WIRE -1568 1024 -1584 1024
WIRE -1552 1024 -1568 1024
WIRE -1328 1024 -1328 592
WIRE -1328 1024 -1472 1024
WIRE -896 1024 -896 960
WIRE -1248 1056 -1248 752
WIRE -816 1088 -816 960
WIRE -768 1088 -816 1088
WIRE -1568 1104 -1568 1024
WIRE -1296 1104 -1296 960
WIRE -1296 1104 -1568 1104
WIRE -1264 1104 -1296 1104
WIRE -816 1104 -816 1088
WIRE 160 1104 128 1104
WIRE 272 1104 240 1104
WIRE -1056 1136 -1056 960
WIRE -1056 1136 -1104 1136
WIRE -992 1136 -992 1088
WIRE -992 1136 -1056 1136
WIRE -896 1136 -896 1088
WIRE -896 1136 -992 1136
WIRE -656 1136 -656 1088
WIRE -384 1136 -384 1088
WIRE -384 1136 -656 1136
WIRE -112 1136 -112 1088
WIRE -112 1136 -384 1136
WIRE 16 1136 16 592
WIRE 16 1136 -112 1136
WIRE 128 1136 128 1104
WIRE 128 1136 16 1136
WIRE 272 1136 272 1104
WIRE 288 1136 272 1136
WIRE 368 1136 352 1136
WIRE -768 1152 -768 1088
WIRE -1264 1168 -1568 1168
WIRE -992 1184 -992 1136
WIRE -896 1184 -896 1136
WIRE -656 1184 -656 1136
WIRE -384 1184 -384 1136
WIRE -112 1184 -112 1136
WIRE 368 1184 368 1136
WIRE 128 1200 128 1136
WIRE 160 1200 128 1200
WIRE 272 1200 272 1136
WIRE 272 1200 240 1200
WIRE -1744 1248 -1808 1248
WIRE -1664 1248 -1680 1248
WIRE -1568 1248 -1568 1168
WIRE -1568 1248 -1584 1248
WIRE -1552 1248 -1568 1248
WIRE -1408 1248 -1472 1248
WIRE -1408 1280 -1408 1248
WIRE -656 1296 -656 1264
WIRE -384 1296 -384 1264
WIRE -112 1296 -112 1264
WIRE -992 1312 -992 1264
WIRE -896 1312 -896 1248
WIRE -896 1312 -992 1312
WIRE -816 1312 -816 1184
WIRE -816 1312 -896 1312
WIRE -784 1312 -816 1312
WIRE -512 1312 -528 1312
WIRE -240 1312 -256 1312
WIRE 368 1312 368 1264
WIRE -992 1392 -992 1312
WIRE -816 1440 -816 1312
WIRE -528 1440 -528 1312
WIRE -528 1440 -816 1440
WIRE -256 1440 -256 1312
WIRE -256 1440 -528 1440
WIRE -1248 1520 -1248 1216
WIRE -992 1520 -992 1472
WIRE -992 1520 -1248 1520
WIRE -656 1520 -656 1392
WIRE -656 1520 -992 1520
WIRE -384 1520 -384 1392
WIRE -384 1520 -656 1520
WIRE -112 1520 -112 1392
WIRE -112 1520 -384 1520
WIRE -656 1600 -656 1520
FLAG 368 1312 0
FLAG -1216 272 Sig+
FLAG -1216 352 Sig-
FLAG -816 224 +VLR
FLAG -816 432 -VLR
FLAG -656 688 +VLR
FLAG -656 1600 -VLR
FLAG -896 352 0
FLAG -1408 1280 0
FLAG -1808 1024 Sig-
FLAG -1808 1248 Sig+
SYMBOL res 352 1168 R0
SYMATTR InstName R7
SYMATTR Value 4
SYMBOL ind 144 1120 R270
WINDOW 0 32 56 VTop 2
WINDOW 3 5 56 VBottom 2
SYMATTR InstName L1
SYMATTR Value 0.75µH
SYMBOL voltage -1216 256 R0
WINDOW 39 24 124 Left 2
SYMATTR SpiceLine Rser=0.5
SYMATTR Value2 AC 1.0 0
SYMATTR InstName V4
SYMATTR Value SINE(0 1.4 25k)
SYMBOL voltage -816 208 R0
WINDOW 123 0 0 Left 0
WINDOW 39 24 124 Left 2
SYMATTR SpiceLine Rser=0.1
SYMATTR InstName V1
SYMATTR Value 60
SYMBOL voltage -816 336 R0
WINDOW 123 0 0 Left 0
WINDOW 39 24 124 Left 2
SYMATTR SpiceLine Rser=0.1
SYMATTR InstName V2
SYMATTR Value 60
SYMBOL res 256 1184 R90
WINDOW 0 0 56 VBottom 2
WINDOW 3 32 56 VTop 2
SYMATTR InstName R3
SYMATTR Value 3.3
SYMBOL nmos -704 880 R0
SYMATTR InstName M1
SYMATTR Value IRFP240
SYMBOL pmos -704 1392 M180
SYMATTR InstName M2
SYMATTR Value IRFP9240
SYMBOL res -672 1168 R0
SYMATTR InstName R10
SYMATTR Value 0.22
SYMBOL res -672 992 R0
SYMATTR InstName R9
SYMATTR Value 0.22
SYMBOL nmos -432 880 R0
SYMATTR InstName M3
SYMATTR Value IRFP240
SYMBOL pmos -432 1392 M180
SYMATTR InstName M4
SYMATTR Value IRFP9240
SYMBOL res -400 1168 R0
SYMATTR InstName R18
SYMATTR Value 0.22
SYMBOL res -400 992 R0
SYMATTR InstName R19
SYMATTR Value 0.22
SYMBOL res -416 944 R90
WINDOW 0 0 56 VBottom 2
WINDOW 3 32 56 VTop 2
SYMATTR InstName R14
SYMATTR Value 220
SYMBOL res -416 1296 R90
WINDOW 0 0 56 VBottom 2
WINDOW 3 32 56 VTop 2
SYMATTR InstName R15
SYMATTR Value 220
SYMBOL res -688 1296 R90
WINDOW 0 0 56 VBottom 2
WINDOW 3 32 56 VTop 2
SYMATTR InstName R24
SYMATTR Value 220
SYMBOL res -688 944 R90
WINDOW 0 0 56 VBottom 2
WINDOW 3 32 56 VTop 2
SYMATTR InstName R25
SYMATTR Value 220
SYMBOL nmos -160 880 R0
SYMATTR InstName M5
SYMATTR Value IRFP240
SYMBOL pmos -160 1392 M180
SYMATTR InstName M6
SYMATTR Value IRFP9240
SYMBOL res -128 1168 R0
SYMATTR InstName R26
SYMATTR Value 0.22
SYMBOL res -128 992 R0
SYMATTR InstName R27
SYMATTR Value 0.22
SYMBOL res -144 944 R90
WINDOW 0 0 56 VBottom 2
WINDOW 3 32 56 VTop 2
SYMATTR InstName R32
SYMATTR Value 220
SYMBOL res -144 1296 R90
WINDOW 0 0 56 VBottom 2
WINDOW 3 32 56 VTop 2
SYMATTR InstName R36
SYMATTR Value 220
SYMBOL res -1008 992 R0
SYMATTR InstName R4
SYMATTR Value 2k
SYMBOL res -1008 1168 R0
SYMATTR InstName R5
SYMATTR Value 2k
SYMBOL polcap -912 1024 R0
WINDOW 3 24 56 Left 2
SYMATTR Value 10µF
SYMATTR InstName C3
SYMATTR Description Capacitor
SYMATTR Type cap
SYMATTR SpiceLine V=50
SYMBOL polcap -912 1184 R0
WINDOW 3 24 56 Left 2
SYMATTR Value 10µF
SYMATTR InstName C7
SYMATTR Description Capacitor
SYMATTR Type cap
SYMATTR SpiceLine V=50
SYMBOL pot -832 1088 R0
WINDOW 0 119 100 Right 2
WINDOW 3 -615 -789 Right 2
SYMATTR InstName 5k-10T
SYMATTR Value Rtot=5K wiper=0.455
SYMBOL OpAmps\\LTC6090-5 -1200 1136 R0
SYMATTR InstName U1
SYMBOL res -1456 1008 R90
WINDOW 0 70 60 VBottom 2
WINDOW 3 -30 54 VTop 2
SYMATTR InstName R12
SYMATTR Value 100k
SYMATTR SpiceLine tol=1
SYMBOL res -1456 1232 R90
WINDOW 0 0 56 VBottom 2
WINDOW 3 32 56 VTop 2
SYMATTR InstName R13
SYMATTR Value 100k
SYMATTR SpiceLine tol=1
SYMBOL cap -1680 1008 R90
WINDOW 0 0 32 VBottom 2
WINDOW 3 32 32 VTop 2
SYMATTR InstName C4
SYMATTR Value 100µF
SYMBOL cap -1680 1232 R90
WINDOW 0 0 32 VBottom 2
WINDOW 3 32 32 VTop 2
SYMATTR InstName C5
SYMATTR Value 100µF
SYMBOL res -1568 1008 R90
WINDOW 0 0 56 VBottom 2
WINDOW 3 32 56 VTop 2
SYMATTR InstName R16
SYMATTR Value 3.3k
SYMBOL res -1568 1232 R90
WINDOW 0 0 56 VBottom 2
WINDOW 3 32 56 VTop 2
SYMATTR InstName R17
SYMATTR Value 3.3k
SYMBOL cap -1136 944 R90
WINDOW 0 0 32 VBottom 2
WINDOW 3 32 32 VTop 2
SYMATTR InstName C1
SYMATTR Value 15pF
SYMBOL res -1008 784 R0
SYMATTR InstName R1
SYMATTR Value 10k
SYMBOL res -1008 1376 R0
SYMATTR InstName R2
SYMATTR Value 10k
SYMBOL Misc\\jumper 320 1072 R0
SYMATTR InstName 10A
TEXT -1824 216 Left 2 !.tran 1m
TEXT -1664 216 Left 2 !;ac lin 10m 10 250k
