Version 4
SHEET 1 5268 2404
WIRE -816 320 -816 304
WIRE -816 320 -896 320
WIRE -896 352 -896 320
WIRE -816 352 -816 320
WIRE 16 592 -1328 592
WIRE -992 752 -1232 752
WIRE -640 752 -640 688
WIRE -640 752 -992 752
WIRE -368 752 -640 752
WIRE -96 752 -368 752
WIRE -992 800 -992 752
WIRE -512 832 -800 832
WIRE -240 832 -512 832
WIRE -640 880 -640 752
WIRE -368 880 -368 752
WIRE -96 880 -96 752
WIRE -1200 960 -1296 960
WIRE -1056 960 -1136 960
WIRE -992 960 -992 880
WIRE -976 960 -992 960
WIRE -880 960 -896 960
WIRE -800 960 -800 832
WIRE -800 960 -880 960
WIRE -768 960 -800 960
WIRE -512 960 -512 832
WIRE -496 960 -512 960
WIRE -240 960 -240 832
WIRE -224 960 -240 960
WIRE -640 1008 -640 976
WIRE -368 1008 -368 976
WIRE -96 1008 -96 976
WIRE -1744 1024 -1808 1024
WIRE -1664 1024 -1680 1024
WIRE -1568 1024 -1584 1024
WIRE -1552 1024 -1568 1024
WIRE -1328 1024 -1328 592
WIRE -1328 1024 -1472 1024
WIRE -992 1024 -992 960
WIRE -880 1024 -880 960
WIRE -1232 1056 -1232 752
WIRE -800 1088 -800 960
WIRE -752 1088 -800 1088
WIRE -1568 1104 -1568 1024
WIRE -1296 1104 -1296 960
WIRE -1296 1104 -1568 1104
WIRE -1264 1104 -1296 1104
WIRE -800 1104 -800 1088
WIRE 176 1104 144 1104
WIRE 288 1104 256 1104
WIRE -1056 1136 -1056 960
WIRE -1056 1136 -1104 1136
WIRE -992 1136 -992 1088
WIRE -992 1136 -1056 1136
WIRE -880 1136 -880 1088
WIRE -880 1136 -992 1136
WIRE -640 1136 -640 1088
WIRE -368 1136 -368 1088
WIRE -368 1136 -640 1136
WIRE -96 1136 -96 1088
WIRE -96 1136 -368 1136
WIRE 16 1136 16 592
WIRE 16 1136 -96 1136
WIRE 48 1136 16 1136
WIRE 144 1136 144 1104
WIRE 144 1136 112 1136
WIRE 288 1136 288 1104
WIRE 384 1136 288 1136
WIRE -752 1152 -752 1088
WIRE -1264 1168 -1568 1168
WIRE -992 1184 -992 1136
WIRE -880 1184 -880 1136
WIRE -640 1184 -640 1136
WIRE -368 1184 -368 1136
WIRE -96 1184 -96 1136
WIRE 384 1184 384 1136
WIRE 144 1200 144 1136
WIRE 176 1200 144 1200
WIRE 288 1200 288 1136
WIRE 288 1200 256 1200
WIRE -1744 1248 -1808 1248
WIRE -1664 1248 -1680 1248
WIRE -1568 1248 -1568 1168
WIRE -1568 1248 -1584 1248
WIRE -1552 1248 -1568 1248
WIRE -1408 1248 -1472 1248
WIRE -1408 1280 -1408 1248
WIRE -640 1296 -640 1264
WIRE -368 1296 -368 1264
WIRE -96 1296 -96 1264
WIRE -992 1312 -992 1248
WIRE -976 1312 -992 1312
WIRE -880 1312 -880 1248
WIRE -880 1312 -896 1312
WIRE -800 1312 -800 1184
WIRE -800 1312 -880 1312
WIRE -768 1312 -800 1312
WIRE -496 1312 -512 1312
WIRE -224 1312 -240 1312
WIRE 384 1312 384 1264
WIRE -992 1392 -992 1312
WIRE -800 1440 -800 1312
WIRE -512 1440 -512 1312
WIRE -512 1440 -800 1440
WIRE -240 1440 -240 1312
WIRE -240 1440 -512 1440
WIRE -1232 1520 -1232 1216
WIRE -992 1520 -992 1472
WIRE -992 1520 -1232 1520
WIRE -640 1520 -640 1392
WIRE -640 1520 -992 1520
WIRE -368 1520 -368 1392
WIRE -368 1520 -640 1520
WIRE -96 1520 -96 1392
WIRE -96 1520 -368 1520
WIRE -640 1600 -640 1520
FLAG 384 1312 0
FLAG -1216 272 Sig+
FLAG -1216 352 Sig-
FLAG -816 224 +VLR
FLAG -816 432 -VLR
FLAG -640 688 +VLR
FLAG -640 1600 -VLR
FLAG -896 352 0
FLAG -1408 1280 0
FLAG -1808 1024 Sig-
FLAG -1808 1248 Sig+
SYMBOL res 368 1168 R0
SYMATTR InstName R7
SYMATTR Value 6
SYMBOL ind 160 1120 R270
WINDOW 0 32 56 VTop 2
WINDOW 3 5 56 VBottom 2
SYMATTR InstName L1
SYMATTR Value 0.75µH
SYMBOL voltage -1216 256 R0
WINDOW 39 24 124 Left 2
SYMATTR SpiceLine Rser=0.5
SYMATTR Value2 AC 1.0 0
SYMATTR InstName V4
SYMATTR Value SINE(0 1.5 25k)
SYMBOL voltage -816 208 R0
WINDOW 123 0 0 Left 0
WINDOW 39 24 124 Left 2
SYMATTR SpiceLine Rser=0.1
SYMATTR InstName V1
SYMATTR Value 60
SYMBOL voltage -816 336 R0
WINDOW 123 0 0 Left 0
WINDOW 39 24 124 Left 2
SYMATTR SpiceLine Rser=0.1
SYMATTR InstName V2
SYMATTR Value 60
SYMBOL res 272 1184 R90
WINDOW 0 0 56 VBottom 2
WINDOW 3 32 56 VTop 2
SYMATTR InstName R3
SYMATTR Value 3.3
SYMBOL nmos -688 880 R0
SYMATTR InstName M1
SYMATTR Value IRFP240
SYMBOL pmos -688 1392 M180
SYMATTR InstName M2
SYMATTR Value IRFP9240
SYMBOL res -656 1168 R0
SYMATTR InstName R10
SYMATTR Value 0.22
SYMBOL res -656 992 R0
SYMATTR InstName R9
SYMATTR Value 0.22
SYMBOL nmos -416 880 R0
SYMATTR InstName M3
SYMATTR Value IRFP240
SYMBOL pmos -416 1392 M180
SYMATTR InstName M4
SYMATTR Value IRFP9240
SYMBOL res -384 1168 R0
SYMATTR InstName R18
SYMATTR Value 0.22
SYMBOL res -384 992 R0
SYMATTR InstName R19
SYMATTR Value 0.22
SYMBOL res -400 944 R90
WINDOW 0 0 56 VBottom 2
WINDOW 3 32 56 VTop 2
SYMATTR InstName R14
SYMATTR Value 220
SYMBOL res -400 1296 R90
WINDOW 0 0 56 VBottom 2
WINDOW 3 32 56 VTop 2
SYMATTR InstName R15
SYMATTR Value 220
SYMBOL res -672 1296 R90
WINDOW 0 0 56 VBottom 2
WINDOW 3 32 56 VTop 2
SYMATTR InstName R24
SYMATTR Value 220
SYMBOL res -672 944 R90
WINDOW 0 0 56 VBottom 2
WINDOW 3 32 56 VTop 2
SYMATTR InstName R25
SYMATTR Value 220
SYMBOL nmos -144 880 R0
SYMATTR InstName M5
SYMATTR Value IRFP240
SYMBOL pmos -144 1392 M180
SYMATTR InstName M6
SYMATTR Value IRFP9240
SYMBOL res -112 1168 R0
SYMATTR InstName R26
SYMATTR Value 0.22
SYMBOL res -112 992 R0
SYMATTR InstName R27
SYMATTR Value 0.22
SYMBOL res -128 944 R90
WINDOW 0 0 56 VBottom 2
WINDOW 3 32 56 VTop 2
SYMATTR InstName R32
SYMATTR Value 220
SYMBOL res -128 1296 R90
WINDOW 0 0 56 VBottom 2
WINDOW 3 32 56 VTop 2
SYMATTR InstName R36
SYMATTR Value 220
SYMBOL polcap -896 1024 R0
WINDOW 3 24 56 Left 2
SYMATTR Value 10µF
SYMATTR InstName C3
SYMATTR Description Capacitor
SYMATTR Type cap
SYMATTR SpiceLine V=50
SYMBOL polcap -896 1184 R0
WINDOW 3 24 56 Left 2
SYMATTR Value 10µF
SYMATTR InstName C7
SYMATTR Description Capacitor
SYMATTR Type cap
SYMATTR SpiceLine V=50
SYMBOL pot -816 1088 R0
WINDOW 0 119 100 Right 2
WINDOW 3 -222 -572 Right 2
SYMATTR InstName 5k-10T
SYMATTR Value Rtot=5K wiper=0.38
SYMBOL OpAmps\\LTC6090-5 -1200 1136 R0
SYMATTR InstName U1
SYMBOL res -1456 1008 R90
WINDOW 0 70 60 VBottom 2
WINDOW 3 -30 54 VTop 2
SYMATTR InstName R12
SYMATTR Value 100k
SYMATTR SpiceLine tol=1
SYMBOL res -1456 1232 R90
WINDOW 0 0 56 VBottom 2
WINDOW 3 32 56 VTop 2
SYMATTR InstName R13
SYMATTR Value 100k
SYMATTR SpiceLine tol=1
SYMBOL cap -1680 1008 R90
WINDOW 0 0 32 VBottom 2
WINDOW 3 32 32 VTop 2
SYMATTR InstName C4
SYMATTR Value 100µF
SYMBOL cap -1680 1232 R90
WINDOW 0 0 32 VBottom 2
WINDOW 3 32 32 VTop 2
SYMATTR InstName C5
SYMATTR Value 100µF
SYMBOL res -1568 1008 R90
WINDOW 0 0 56 VBottom 2
WINDOW 3 32 56 VTop 2
SYMATTR InstName R16
SYMATTR Value 3.3k
SYMBOL res -1568 1232 R90
WINDOW 0 0 56 VBottom 2
WINDOW 3 32 56 VTop 2
SYMATTR InstName R17
SYMATTR Value 3.3k
SYMBOL cap -1136 944 R90
WINDOW 0 0 32 VBottom 2
WINDOW 3 32 32 VTop 2
SYMATTR InstName C1
SYMATTR Value 18pF
SYMBOL res -1008 784 R0
SYMATTR InstName R1
SYMATTR Value 10k
SYMBOL res -1008 1376 R0
SYMATTR InstName R2
SYMATTR Value 10k
SYMBOL Misc\\jumper 80 1072 R0
SYMATTR InstName 5A
SYMBOL zener -976 1088 R180
WINDOW 0 24 64 Left 2
WINDOW 3 -61 -6 Left 2
SYMATTR InstName D1
SYMATTR Value BZX84C8V2L
SYMATTR Description Diode
SYMATTR Type diode
SYMBOL zener -976 1248 R180
WINDOW 0 24 64 Left 2
WINDOW 3 -61 -5 Left 2
SYMATTR InstName D2
SYMATTR Value BZX84C8V2L
SYMATTR Description Diode
SYMATTR Type diode
SYMBOL res -880 944 R90
WINDOW 0 0 56 VBottom 2
WINDOW 3 32 56 VTop 2
SYMATTR InstName R6
SYMATTR Value 1k
SYMBOL res -880 1296 R90
WINDOW 0 0 56 VBottom 2
WINDOW 3 32 56 VTop 2
SYMATTR InstName R8
SYMATTR Value 1k
TEXT -1272 464 Left 2 !.tran 1m
TEXT -1112 464 Left 2 !;ac lin 10m 20 2k
