Version 4
SHEET 1 5268 2212
WIRE -1472 240 -1616 240
WIRE -880 240 -880 176
WIRE -880 240 -1472 240
WIRE -672 240 -880 240
WIRE -880 272 -880 240
WIRE -1472 288 -1472 240
WIRE -1616 592 -1616 240
WIRE -880 640 -880 352
WIRE -1472 688 -1472 368
WIRE -944 688 -1472 688
WIRE -672 768 -672 240
WIRE -1472 816 -1472 688
WIRE -1280 832 -1312 832
WIRE -1184 832 -1216 832
WIRE -880 848 -880 736
WIRE -720 848 -880 848
WIRE -1616 864 -1616 672
WIRE -1536 864 -1616 864
WIRE -880 912 -880 848
WIRE -1472 928 -1472 912
WIRE -1472 928 -2656 928
WIRE -1616 944 -1616 864
WIRE -1312 944 -1312 832
WIRE -1312 944 -1376 944
WIRE -1280 944 -1312 944
WIRE -1184 944 -1184 832
WIRE -1184 944 -1200 944
WIRE -1312 976 -1312 944
WIRE -1184 1008 -1184 944
WIRE -496 1008 -1184 1008
WIRE -672 1024 -672 864
WIRE -2272 1040 -2288 1040
WIRE -2128 1040 -2192 1040
WIRE -2064 1040 -2128 1040
WIRE -2016 1040 -2064 1040
WIRE -2000 1040 -2016 1040
WIRE -1920 1040 -1936 1040
WIRE -1824 1040 -1840 1040
WIRE -1808 1040 -1824 1040
WIRE -1376 1040 -1376 944
WIRE -1376 1040 -1728 1040
WIRE -1312 1072 -1312 1056
WIRE -2656 1088 -2656 928
WIRE -2128 1088 -2128 1040
WIRE -2064 1104 -2064 1040
WIRE -2016 1104 -2016 1040
WIRE -1472 1104 -1472 928
WIRE -1824 1120 -1824 1040
WIRE -1504 1120 -1824 1120
WIRE -1392 1136 -1440 1136
WIRE -1312 1136 -1392 1136
WIRE -672 1136 -672 1104
WIRE -672 1136 -1232 1136
WIRE -576 1136 -672 1136
WIRE -496 1136 -496 1008
WIRE -400 1136 -400 1104
WIRE -400 1136 -496 1136
WIRE -320 1136 -320 1104
WIRE -256 1136 -320 1136
WIRE -1504 1152 -1824 1152
WIRE -1392 1152 -1392 1136
WIRE -672 1168 -672 1136
WIRE -400 1168 -400 1136
WIRE -320 1168 -320 1136
WIRE -576 1184 -576 1136
WIRE -496 1184 -496 1136
WIRE -256 1184 -256 1136
WIRE -2656 1200 -2656 1168
WIRE -2608 1200 -2608 1136
WIRE -2608 1200 -2656 1200
WIRE -880 1216 -880 992
WIRE -2272 1232 -2288 1232
WIRE -2128 1232 -2128 1168
WIRE -2128 1232 -2192 1232
WIRE -2064 1232 -2064 1168
WIRE -2064 1232 -2128 1232
WIRE -2016 1232 -2016 1168
WIRE -2016 1232 -2064 1232
WIRE -2000 1232 -2016 1232
WIRE -1920 1232 -1936 1232
WIRE -1824 1232 -1824 1152
WIRE -1824 1232 -1840 1232
WIRE -1808 1232 -1824 1232
WIRE -1664 1232 -1728 1232
WIRE -1616 1232 -1616 1008
WIRE -1392 1248 -1392 1232
WIRE -1664 1264 -1664 1232
WIRE -256 1312 -256 1264
WIRE -2656 1328 -2656 1200
WIRE -1472 1328 -1472 1168
WIRE -1472 1328 -2656 1328
WIRE -1472 1344 -1472 1328
WIRE -1616 1392 -1616 1312
WIRE -1536 1392 -1616 1392
WIRE -672 1408 -672 1248
WIRE -880 1424 -880 1280
WIRE -720 1424 -880 1424
WIRE -880 1536 -880 1424
WIRE -2352 1552 -2352 1536
WIRE -2352 1552 -2432 1552
WIRE -2432 1584 -2432 1552
WIRE -2352 1584 -2352 1552
WIRE -1472 1584 -1472 1440
WIRE -944 1584 -1472 1584
WIRE -1616 1600 -1616 1392
WIRE -1472 1920 -1472 1584
WIRE -880 1936 -880 1632
WIRE -1616 2048 -1616 1680
WIRE -1472 2048 -1472 2000
WIRE -1472 2048 -1616 2048
WIRE -880 2048 -880 2016
WIRE -880 2048 -1472 2048
WIRE -672 2048 -672 1504
WIRE -672 2048 -880 2048
WIRE -880 2112 -880 2048
FLAG -2432 432 Sig+
FLAG -2432 512 Sig-
FLAG -2352 1456 +VLR
FLAG -2352 1664 -VLR
FLAG -1664 1264 0
FLAG -2288 1040 Sig-
FLAG -2288 1232 Sig+
FLAG -880 176 +VLR
FLAG -880 2112 -VLR
FLAG -2432 1584 0
FLAG -1392 1248 0
FLAG -256 1312 0
FLAG -1312 1072 0
SYMBOL OpAmps\\LT1055 -1472 1072 R0
WINDOW 3 -92 -4 Left 2
SYMATTR InstName U1
SYMBOL res -896 256 R0
SYMATTR InstName R10
SYMATTR Value 100
SYMBOL res -896 1920 R0
SYMATTR InstName R11
SYMATTR Value 100
SYMBOL npn -1536 816 R0
SYMATTR InstName Q5
SYMATTR Value 2SC3423
SYMBOL pnp -1536 1440 M180
SYMATTR InstName Q6
SYMATTR Value 2SA1360
SYMBOL zener -1600 1008 R180
WINDOW 0 -48 34 Left 2
WINDOW 3 -71 68 Left 2
SYMATTR InstName D1
SYMATTR Value BZX84B16VL
SYMBOL zener -1600 1296 R180
WINDOW 0 -46 29 Left 2
WINDOW 3 -67 -6 Left 2
SYMATTR InstName D2
SYMATTR Value BZX84B16VL
SYMBOL res -1632 576 R0
SYMATTR InstName R12
SYMATTR Value 10k
SYMBOL res -1632 1584 R0
SYMATTR InstName R13
SYMATTR Value 10k
SYMBOL voltage -2432 416 R0
WINDOW 39 24 124 Left 2
SYMATTR SpiceLine Rser=0.5
SYMATTR Value2 AC 1.0 0
SYMATTR InstName V4
SYMATTR Value SINE(0 1.2 1k)
SYMBOL res -1712 1024 R90
WINDOW 0 70 60 VBottom 2
WINDOW 3 -30 54 VTop 2
SYMATTR InstName R28
SYMATTR Value 47k
SYMATTR SpiceLine tol=1
SYMBOL res -1712 1216 R90
WINDOW 0 0 56 VBottom 2
WINDOW 3 32 56 VTop 2
SYMATTR InstName R29
SYMATTR Value 47k
SYMATTR SpiceLine tol=1
SYMBOL cap -1936 1024 R90
WINDOW 0 0 32 VBottom 2
WINDOW 3 32 32 VTop 2
SYMATTR InstName C2
SYMATTR Value 47µF
SYMBOL cap -1936 1216 R90
WINDOW 0 0 32 VBottom 2
WINDOW 3 32 32 VTop 2
SYMATTR InstName C8
SYMATTR Value 47µF
SYMBOL voltage -2352 1440 R0
WINDOW 123 0 0 Left 0
WINDOW 39 24 124 Left 2
SYMATTR SpiceLine Rser=0.05
SYMATTR InstName V1
SYMATTR Value 60
SYMBOL voltage -2352 1568 R0
WINDOW 123 0 0 Left 0
WINDOW 39 24 124 Left 2
SYMATTR SpiceLine Rser=0.05
SYMATTR InstName V2
SYMATTR Value 60
SYMBOL res -1488 272 R0
SYMATTR InstName R2
SYMATTR Value 330
SYMBOL res -1488 1904 R0
SYMATTR InstName R33
SYMATTR Value 330
SYMBOL res -1184 928 R90
WINDOW 0 0 56 VBottom 2
WINDOW 3 32 56 VTop 2
SYMATTR InstName R34
SYMATTR Value 22k
SYMBOL res -1408 1136 R0
SYMATTR InstName R8
SYMATTR Value 1k
SYMBOL nmos -720 768 R0
SYMATTR InstName M3
SYMATTR Value IRFP240
SYMBOL pmos -720 1504 M180
SYMATTR InstName M4
SYMATTR Value IRFP9240
SYMBOL res -688 1008 R0
SYMATTR InstName R6
SYMATTR Value 0.22
SYMBOL res -688 1152 R0
SYMATTR InstName R7
SYMATTR Value 0.22
SYMBOL res -272 1168 R0
SYMATTR InstName R14
SYMATTR Value 4
SYMBOL res -896 896 R0
SYMATTR InstName R15
SYMATTR Value 330
SYMBOL cap -1216 816 R90
WINDOW 0 0 32 VBottom 2
WINDOW 3 32 32 VTop 2
SYMATTR InstName C1
SYMATTR Value 47pF
SYMBOL res -1328 960 R0
SYMATTR InstName R1
SYMATTR Value 1k
SYMBOL pnp -944 736 M180
SYMATTR InstName Q1
SYMATTR Value 2SA1859A
SYMBOL npn -944 1536 R0
SYMATTR InstName Q2
SYMATTR Value 2SC4883A
SYMBOL zener -864 1280 R180
WINDOW 0 24 64 Left 2
WINDOW 3 24 0 Left 2
SYMATTR InstName D4
SYMATTR Value 1N5231
SYMATTR Description Diode
SYMATTR Type diode
SYMBOL res -1216 1120 R90
WINDOW 0 0 56 VBottom 2
WINDOW 3 32 56 VTop 2
SYMATTR InstName R4
SYMATTR Value 22k
SYMBOL ind -416 1120 R270
WINDOW 0 32 56 VTop 2
WINDOW 3 92 51 VBottom 2
SYMATTR InstName L1
SYMATTR Value 1µH
SYMBOL res -304 1152 R90
WINDOW 0 85 56 VBottom 2
WINDOW 3 32 56 VTop 2
SYMATTR InstName R5
SYMATTR Value 3.3
SYMBOL pot -2672 1072 R0
SYMATTR InstName U2
SYMATTR Value Rtot=100K wiper=0.35
SYMBOL res -480 1120 R90
WINDOW 0 0 56 VBottom 2
WINDOW 3 -57 59 VTop 2
SYMATTR InstName R3
SYMATTR Value 0.005
SYMBOL res -480 1168 R90
WINDOW 0 0 56 VBottom 2
WINDOW 3 32 56 VTop 2
SYMATTR InstName R9
SYMATTR Value 100
SYMBOL diode -2080 1104 R0
WINDOW 3 -32 155 Left 2
SYMATTR InstName D3
SYMATTR Value 1N4148
SYMBOL diode -2000 1168 R180
WINDOW 0 24 64 Left 2
WINDOW 3 41 155 Left 2
SYMATTR InstName D5
SYMATTR Value 1N4148
SYMBOL res -2176 1024 R90
WINDOW 0 0 56 VBottom 2
WINDOW 3 32 56 VTop 2
SYMATTR InstName R16
SYMATTR Value 10k
SYMBOL res -2176 1216 R90
WINDOW 0 0 56 VBottom 2
WINDOW 3 32 56 VTop 2
SYMATTR InstName R17
SYMATTR Value 10k
SYMBOL res -2144 1072 R0
SYMATTR InstName R18
SYMATTR Value 15k
SYMBOL res -1824 1024 R90
WINDOW 0 0 56 VBottom 2
WINDOW 3 32 56 VTop 2
SYMATTR InstName R19
SYMATTR Value 10k
SYMBOL res -1824 1216 R90
WINDOW 0 0 56 VBottom 2
WINDOW 3 32 56 VTop 2
SYMATTR InstName R20
SYMATTR Value 10k
TEXT -2464 752 Left 2 !.tran 10m
TEXT -2464 688 Left 2 !;ac lin 10m 20 20k
