Version 4
SHEET 1 5268 2404
WIRE 176 32 -1328 32
WIRE -1088 240 -1248 240
WIRE -992 240 -1088 240
WIRE -656 240 -656 176
WIRE -656 240 -992 240
WIRE -304 240 -656 240
WIRE 48 240 -304 240
WIRE -1088 256 -1088 240
WIRE -992 272 -992 240
WIRE -992 384 -992 352
WIRE -1776 432 -1776 416
WIRE -1776 432 -1856 432
WIRE -1088 432 -1088 384
WIRE -1056 432 -1088 432
WIRE -1856 464 -1856 432
WIRE -1776 464 -1776 432
WIRE -1088 480 -1088 432
WIRE -1088 608 -1088 560
WIRE -448 640 -816 640
WIRE -96 640 -448 640
WIRE -656 688 -656 240
WIRE -304 688 -304 240
WIRE 48 688 48 240
WIRE -992 768 -992 480
WIRE -896 768 -992 768
WIRE -816 768 -816 640
WIRE -816 768 -896 768
WIRE -784 768 -816 768
WIRE -448 768 -448 640
WIRE -432 768 -448 768
WIRE -96 768 -96 640
WIRE -80 768 -96 768
WIRE -1200 960 -1296 960
WIRE -1056 960 -1136 960
WIRE -992 1008 -992 768
WIRE -656 1008 -656 784
WIRE -304 1008 -304 784
WIRE 48 1008 48 784
WIRE -1744 1024 -1808 1024
WIRE -1664 1024 -1680 1024
WIRE -1568 1024 -1584 1024
WIRE -1552 1024 -1568 1024
WIRE -1328 1024 -1328 32
WIRE -1328 1024 -1472 1024
WIRE -896 1024 -896 768
WIRE -1248 1056 -1248 240
WIRE -816 1088 -816 768
WIRE -768 1088 -816 1088
WIRE -1568 1104 -1568 1024
WIRE -1296 1104 -1296 960
WIRE -1296 1104 -1568 1104
WIRE -1264 1104 -1296 1104
WIRE -816 1104 -816 1088
WIRE 320 1104 288 1104
WIRE 432 1104 400 1104
WIRE -1056 1136 -1056 960
WIRE -1056 1136 -1104 1136
WIRE -992 1136 -992 1088
WIRE -992 1136 -1056 1136
WIRE -896 1136 -896 1088
WIRE -896 1136 -992 1136
WIRE -656 1136 -656 1088
WIRE -304 1136 -304 1088
WIRE -304 1136 -656 1136
WIRE 48 1136 48 1088
WIRE 48 1136 -304 1136
WIRE 176 1136 176 32
WIRE 176 1136 48 1136
WIRE 288 1136 288 1104
WIRE 288 1136 176 1136
WIRE 432 1136 432 1104
WIRE 528 1136 432 1136
WIRE -768 1152 -768 1088
WIRE -1264 1168 -1568 1168
WIRE -992 1184 -992 1136
WIRE -896 1184 -896 1136
WIRE -656 1184 -656 1136
WIRE -304 1184 -304 1136
WIRE 48 1184 48 1136
WIRE 528 1184 528 1136
WIRE 288 1200 288 1136
WIRE 320 1200 288 1200
WIRE 432 1200 432 1136
WIRE 432 1200 400 1200
WIRE -1744 1248 -1808 1248
WIRE -1664 1248 -1680 1248
WIRE -1568 1248 -1568 1168
WIRE -1568 1248 -1584 1248
WIRE -1552 1248 -1568 1248
WIRE -1408 1248 -1472 1248
WIRE -1408 1280 -1408 1248
WIRE 528 1312 528 1264
WIRE -656 1488 -656 1264
WIRE -304 1488 -304 1264
WIRE 48 1488 48 1264
WIRE -992 1504 -992 1264
WIRE -896 1504 -896 1248
WIRE -896 1504 -992 1504
WIRE -816 1504 -816 1184
WIRE -816 1504 -896 1504
WIRE -784 1504 -816 1504
WIRE -432 1504 -448 1504
WIRE -80 1504 -96 1504
WIRE -816 1632 -816 1504
WIRE -448 1632 -448 1504
WIRE -448 1632 -816 1632
WIRE -96 1632 -96 1504
WIRE -96 1632 -448 1632
WIRE -1088 1712 -1088 1664
WIRE -992 1792 -992 1504
WIRE -1088 1840 -1088 1792
WIRE -1056 1840 -1088 1840
WIRE -1088 1904 -1088 1840
WIRE -992 1936 -992 1888
WIRE -1248 2048 -1248 1216
WIRE -1088 2048 -1088 2032
WIRE -1088 2048 -1248 2048
WIRE -992 2048 -992 2016
WIRE -992 2048 -1088 2048
WIRE -656 2048 -656 1584
WIRE -656 2048 -992 2048
WIRE -304 2048 -304 1584
WIRE -304 2048 -656 2048
WIRE 48 2048 48 1584
WIRE 48 2048 -304 2048
WIRE -656 2128 -656 2048
FLAG 528 1312 0
FLAG -1776 704 Sig+
FLAG -1776 784 Sig-
FLAG -1776 336 +VLR
FLAG -1776 544 -VLR
FLAG -656 176 +VLR
FLAG -656 2128 -VLR
FLAG -1856 464 0
FLAG -1408 1280 0
FLAG -1808 1024 Sig-
FLAG -1808 1248 Sig+
FLAG -1088 608 0
FLAG -1088 1664 0
SYMBOL res 512 1168 R0
SYMATTR InstName R7
SYMATTR Value 4
SYMBOL ind 304 1120 R270
WINDOW 0 32 56 VTop 2
WINDOW 3 5 56 VBottom 2
SYMATTR InstName L1
SYMATTR Value 0.75µH
SYMBOL voltage -1776 688 R0
WINDOW 39 24 124 Left 2
SYMATTR SpiceLine Rser=0.5
SYMATTR Value2 AC 1.0 0
SYMATTR InstName V4
SYMATTR Value SINE(0 1.5 25k)
SYMBOL voltage -1776 320 R0
WINDOW 123 0 0 Left 0
WINDOW 39 24 124 Left 2
SYMATTR SpiceLine Rser=0.1
SYMATTR InstName V1
SYMATTR Value 60
SYMBOL voltage -1776 448 R0
WINDOW 123 0 0 Left 0
WINDOW 39 24 124 Left 2
SYMATTR SpiceLine Rser=0.1
SYMATTR InstName V2
SYMATTR Value 60
SYMBOL res 416 1184 R90
WINDOW 0 0 56 VBottom 2
WINDOW 3 32 56 VTop 2
SYMATTR InstName R3
SYMATTR Value 3.3
SYMBOL nmos -704 688 R0
SYMATTR InstName M1
SYMATTR Value IRFP240
SYMBOL pmos -704 1584 M180
SYMATTR InstName M2
SYMATTR Value IRFP9240
SYMBOL res -672 1168 R0
SYMATTR InstName R10
SYMATTR Value 0.22
SYMBOL res -672 992 R0
SYMATTR InstName R9
SYMATTR Value 0.22
SYMBOL nmos -352 688 R0
SYMATTR InstName M3
SYMATTR Value IRFP240
SYMBOL pmos -352 1584 M180
SYMATTR InstName M4
SYMATTR Value IRFP9240
SYMBOL res -320 1168 R0
SYMATTR InstName R18
SYMATTR Value 0.22
SYMBOL res -320 992 R0
SYMATTR InstName R19
SYMATTR Value 0.22
SYMBOL res -336 752 R90
WINDOW 0 0 56 VBottom 2
WINDOW 3 32 56 VTop 2
SYMATTR InstName R14
SYMATTR Value 220
SYMBOL res -336 1488 R90
WINDOW 0 0 56 VBottom 2
WINDOW 3 32 56 VTop 2
SYMATTR InstName R15
SYMATTR Value 220
SYMBOL res -688 1488 R90
WINDOW 0 0 56 VBottom 2
WINDOW 3 32 56 VTop 2
SYMATTR InstName R24
SYMATTR Value 220
SYMBOL res -688 752 R90
WINDOW 0 0 56 VBottom 2
WINDOW 3 32 56 VTop 2
SYMATTR InstName R25
SYMATTR Value 220
SYMBOL nmos 0 688 R0
SYMATTR InstName M5
SYMATTR Value IRFP240
SYMBOL pmos 0 1584 M180
SYMATTR InstName M6
SYMATTR Value IRFP9240
SYMBOL res 32 1168 R0
SYMATTR InstName R26
SYMATTR Value 0.22
SYMBOL res 32 992 R0
SYMATTR InstName R27
SYMATTR Value 0.22
SYMBOL res 16 752 R90
WINDOW 0 0 56 VBottom 2
WINDOW 3 32 56 VTop 2
SYMATTR InstName R32
SYMATTR Value 220
SYMBOL res 16 1488 R90
WINDOW 0 0 56 VBottom 2
WINDOW 3 32 56 VTop 2
SYMATTR InstName R36
SYMATTR Value 220
SYMBOL res -1008 992 R0
SYMATTR InstName R4
SYMATTR Value 2.2k
SYMBOL res -1008 1168 R0
SYMATTR InstName R5
SYMATTR Value 2.2k
SYMBOL polcap -912 1024 R0
WINDOW 3 24 56 Left 2
SYMATTR Value 10µF
SYMATTR InstName C3
SYMATTR Description Capacitor
SYMATTR Type cap
SYMATTR SpiceLine V=50
SYMBOL polcap -912 1184 R0
WINDOW 3 24 56 Left 2
SYMATTR Value 10µF
SYMATTR InstName C7
SYMATTR Description Capacitor
SYMATTR Type cap
SYMATTR SpiceLine V=50
SYMBOL pot -832 1088 R0
WINDOW 0 119 100 Right 2
WINDOW 3 -615 -789 Right 2
SYMATTR InstName 5k-10T
SYMATTR Value Rtot=5K wiper=0.596
SYMBOL OpAmps\\LTC6090-5 -1200 1136 R0
SYMATTR InstName U1
SYMBOL res -1456 1008 R90
WINDOW 0 70 60 VBottom 2
WINDOW 3 -30 54 VTop 2
SYMATTR InstName R12
SYMATTR Value 100k
SYMATTR SpiceLine tol=1
SYMBOL res -1456 1232 R90
WINDOW 0 0 56 VBottom 2
WINDOW 3 32 56 VTop 2
SYMATTR InstName R13
SYMATTR Value 100k
SYMATTR SpiceLine tol=1
SYMBOL cap -1680 1008 R90
WINDOW 0 0 32 VBottom 2
WINDOW 3 32 32 VTop 2
SYMATTR InstName C4
SYMATTR Value 100µF
SYMBOL cap -1680 1232 R90
WINDOW 0 0 32 VBottom 2
WINDOW 3 32 32 VTop 2
SYMATTR InstName C5
SYMATTR Value 100µF
SYMBOL res -1568 1008 R90
WINDOW 0 0 56 VBottom 2
WINDOW 3 32 56 VTop 2
SYMATTR InstName R16
SYMATTR Value 3.3k
SYMBOL res -1568 1232 R90
WINDOW 0 0 56 VBottom 2
WINDOW 3 32 56 VTop 2
SYMATTR InstName R17
SYMATTR Value 3.3k
SYMBOL cap -1136 944 R90
WINDOW 0 0 32 VBottom 2
WINDOW 3 32 32 VTop 2
SYMATTR InstName C1
SYMATTR Value 15pF
SYMBOL npn -1056 1792 R0
SYMATTR InstName Q3
SYMATTR Value 2SC4883A
SYMBOL pnp -1056 480 M180
SYMATTR InstName Q4
SYMATTR Value 2SA1859A
SYMBOL diode -1104 1968 R0
WINDOW 3 -116 57 Left 2
SYMATTR Value 1N4148
SYMATTR InstName D2
SYMBOL diode -1104 256 R0
WINDOW 3 -99 62 Left 2
SYMATTR Value 1N4148
SYMATTR InstName D4
SYMBOL res -1008 256 R0
SYMATTR InstName R6
SYMATTR Value 150
SYMBOL res -1008 1920 R0
SYMATTR InstName R8
SYMATTR Value 150
SYMBOL diode -1104 320 R0
WINDOW 3 -99 62 Left 2
SYMATTR Value 1N4148
SYMATTR InstName D1
SYMBOL diode -1104 1904 R0
WINDOW 3 -116 57 Left 2
SYMATTR Value 1N4148
SYMATTR InstName D3
SYMBOL res -1104 464 R0
SYMATTR InstName R1
SYMATTR Value 22k
SYMBOL res -1104 1696 R0
SYMATTR InstName R2
SYMATTR Value 22k
TEXT -1824 216 Left 2 !.tran 1m
TEXT -1664 216 Left 2 !;ac lin 10m 20 20k
