Version 4
SHEET 1 1408 824
WIRE 1088 -464 32 -464
WIRE 464 -368 128 -368
WIRE 752 -368 752 -416
WIRE 752 -368 464 -368
WIRE 944 -368 752 -368
WIRE 464 -320 464 -368
WIRE 752 -288 752 -368
WIRE 944 -288 944 -368
WIRE -576 -240 -576 -272
WIRE 128 -208 128 -368
WIRE 464 -176 464 -240
WIRE 464 -176 288 -176
WIRE -576 -144 -576 -160
WIRE -416 -144 -576 -144
WIRE 288 -144 288 -176
WIRE 896 -144 624 -144
WIRE -576 -128 -576 -144
WIRE 32 -128 32 -464
WIRE 32 -128 -48 -128
WIRE 752 -128 752 -208
WIRE 944 -128 944 -208
WIRE 464 -112 464 -176
WIRE 624 -112 624 -144
WIRE 624 -112 464 -112
WIRE 704 -112 624 -112
WIRE 896 -112 896 -144
WIRE -48 -96 -48 -128
WIRE 32 -96 32 -128
WIRE 464 -80 464 -112
WIRE -416 -64 -416 -144
WIRE 288 -32 288 -64
WIRE 352 -32 288 -32
WIRE 400 -32 352 -32
WIRE -576 -16 -576 -48
WIRE -48 16 -48 -32
WIRE 32 16 32 -16
WIRE 32 16 -48 16
WIRE 656 32 544 32
WIRE 752 32 752 -32
WIRE 752 32 720 32
WIRE 464 48 464 16
WIRE 288 64 288 -32
WIRE 352 80 352 -32
WIRE 400 80 352 80
WIRE 352 112 352 80
WIRE 128 128 128 -144
WIRE 624 128 624 -112
WIRE -128 144 -192 144
WIRE 32 144 32 16
WIRE 32 144 -48 144
WIRE 96 144 32 144
WIRE 288 160 288 128
WIRE 288 160 160 160
WIRE 400 160 400 80
WIRE 464 160 464 128
WIRE 544 160 544 32
WIRE 544 160 464 160
WIRE 752 160 752 32
WIRE 944 160 944 -32
WIRE 944 160 752 160
WIRE 1088 160 1088 -464
WIRE 1088 160 944 160
WIRE 1184 160 1088 160
WIRE 96 176 64 176
WIRE 288 192 288 160
WIRE 464 192 464 160
WIRE 544 192 544 160
WIRE 1184 192 1184 160
WIRE 64 224 64 176
WIRE -592 240 -592 176
WIRE 464 288 464 272
WIRE 544 320 544 272
WIRE 288 336 288 256
WIRE 352 336 352 192
WIRE 352 336 288 336
WIRE 400 336 352 336
WIRE 1184 352 1184 272
WIRE 288 368 288 336
WIRE 752 368 752 160
WIRE 944 368 944 160
WIRE -592 384 -592 320
WIRE 464 448 464 384
WIRE 624 448 624 192
WIRE 624 448 464 448
WIRE 704 448 624 448
WIRE 128 464 128 192
WIRE 288 480 288 448
WIRE 464 480 464 448
WIRE 464 480 288 480
WIRE 624 480 624 448
WIRE 896 480 896 448
WIRE 896 480 624 480
WIRE 752 528 752 464
WIRE 944 528 944 464
WIRE 464 544 464 480
WIRE 128 688 128 528
WIRE 464 688 464 624
WIRE 464 688 128 688
WIRE 752 688 752 608
WIRE 752 688 464 688
WIRE 944 688 944 608
WIRE 944 688 752 688
WIRE 752 752 752 688
FLAG 1184 352 0
FLAG -416 -64 0
FLAG -576 -272 +v
FLAG -576 -16 -V
FLAG 752 -416 +v
FLAG 752 752 -V
FLAG -592 384 0
FLAG -592 176 Signal
FLAG -256 144 Signal
FLAG 64 224 0
FLAG 544 320 0
SYMBOL npn 400 -80 R0
WINDOW 3 73 60 Left 2
SYMATTR InstName Q1
SYMATTR Value MJE340
SYMBOL pnp 400 384 M180
WINDOW 0 42 43 Left 2
WINDOW 3 81 2 Left 2
SYMATTR InstName Q2
SYMATTR Value MJE350
SYMBOL res 448 -336 R0
SYMATTR InstName R6
SYMATTR Value 1k
SYMBOL res 448 528 R0
SYMATTR InstName R8
SYMATTR Value 1k
SYMBOL nmos 704 368 R0
SYMATTR InstName M1
SYMATTR Value IRF640
SYMBOL pmos 704 -32 M180
SYMATTR InstName M2
SYMATTR Value IRF9640
SYMBOL res 736 -304 R0
SYMATTR InstName R9
SYMATTR Value 0.22
SYMBOL res 736 512 R0
SYMATTR InstName R10
SYMATTR Value 0.22
SYMBOL res 1168 176 R0
SYMATTR InstName R13
SYMATTR Value 8
SYMBOL res 16 -112 R0
SYMATTR InstName R14
SYMATTR Value 180k
SYMBOL res -32 128 R90
WINDOW 0 0 56 VBottom 2
WINDOW 3 32 56 VTop 2
SYMATTR InstName R15
SYMATTR Value 10k
SYMBOL cap -192 128 R90
WINDOW 0 0 32 VBottom 2
WINDOW 3 32 32 VTop 2
SYMATTR InstName C3
SYMATTR Value 47µF
SYMBOL voltage -576 -256 R0
WINDOW 123 0 0 Left 0
WINDOW 39 24 44 Left 2
SYMATTR SpiceLine Rser=0.1
SYMATTR InstName V1
SYMATTR Value 30
SYMBOL voltage -576 -144 R0
WINDOW 123 0 0 Left 0
WINDOW 39 24 44 Left 2
SYMATTR SpiceLine Rser=0.1
SYMATTR InstName V2
SYMATTR Value 30
SYMBOL voltage -592 224 R0
WINDOW 123 24 124 Left 2
SYMATTR Value2 AC 0.5
SYMATTR InstName V3
SYMATTR Value SINE(0 1.4 25k)
SYMATTR SpiceLine Rser=10
SYMBOL OpAmps\\LT1055 128 96 R0
WINDOW 3 -40 3 Left 2
SYMATTR InstName U1
SYMBOL zener 144 -144 R180
WINDOW 0 26 6 Left 2
WINDOW 3 -50 74 Left 2
SYMATTR InstName D5
SYMATTR Value BZX84C15L
SYMBOL zener 144 528 R180
WINDOW 0 24 64 Left 2
WINDOW 3 -55 -11 Left 2
SYMATTR InstName D6
SYMATTR Value BZX84C15L
SYMBOL cap 608 128 R0
SYMATTR InstName C6
SYMATTR Value 10µF
SYMBOL cap -64 -96 R0
SYMATTR InstName C7
SYMATTR Value 5pF
SYMBOL res 448 32 R0
SYMATTR InstName R3
SYMATTR Value 22
SYMBOL res 448 176 R0
SYMATTR InstName R4
SYMATTR Value 22
SYMBOL res 528 176 R0
SYMATTR InstName R11
SYMATTR Value 47
SYMBOL cap 720 16 R90
WINDOW 0 0 32 VBottom 2
WINDOW 3 32 32 VTop 2
SYMATTR InstName C1
SYMATTR Value 0.001µF
SYMBOL res 304 -48 R180
WINDOW 0 36 76 Left 2
WINDOW 3 36 40 Left 2
SYMATTR InstName R1
SYMATTR Value 8.2k
SYMBOL res 304 464 R180
WINDOW 0 36 76 Left 2
WINDOW 3 36 40 Left 2
SYMATTR InstName R2
SYMATTR Value 8.2k
SYMBOL diode 272 64 R0
WINDOW 3 -85 1 Left 2
SYMATTR InstName D1
SYMATTR Value 1N4001
SYMBOL diode 272 192 R0
WINDOW 3 -84 62 Left 2
SYMATTR InstName D2
SYMATTR Value 1N4001
SYMBOL pot 336 96 R0
WINDOW 0 37 33 Invisible 2
WINDOW 3 -452 -445 Right 2
SYMATTR InstName U3
SYMATTR Value Rtot=10K wiper=.3
SYMBOL nmos 896 368 R0
SYMATTR InstName M3
SYMATTR Value IRF640
SYMBOL pmos 896 -32 M180
SYMATTR InstName M4
SYMATTR Value IRF9640
SYMBOL res 928 -304 R0
SYMATTR InstName R5
SYMATTR Value 0.22
SYMBOL res 928 512 R0
SYMATTR InstName R7
SYMATTR Value 0.22
TEXT -376 416 Left 2 !.tran 1m
TEXT -232 320 Left 2 !;ac lin 1m 5 25k
