Version 4
SHEET 1 1124 804
WIRE 944 -368 32 -368
WIRE 224 -272 128 -272
WIRE 624 -272 224 -272
WIRE 832 -272 832 -320
WIRE 832 -272 624 -272
WIRE -576 -240 -576 -288
WIRE 832 -240 832 -272
WIRE 624 -192 624 -272
WIRE -576 -144 -576 -160
WIRE -416 -144 -576 -144
WIRE -576 -112 -576 -144
WIRE 128 -112 128 -272
WIRE 224 -96 224 -272
WIRE -416 -64 -416 -144
WIRE 832 -64 832 -160
WIRE 624 -48 624 -112
WIRE 784 -48 624 -48
WIRE 32 -32 32 -368
WIRE 128 -16 128 -48
WIRE 160 -16 128 -16
WIRE 624 -16 624 -48
WIRE -576 32 -576 -32
WIRE 224 32 224 -16
WIRE 272 32 224 32
WIRE 400 32 352 32
WIRE 480 32 400 32
WIRE 560 32 480 32
WIRE 400 64 400 32
WIRE 480 80 480 32
WIRE 528 80 480 80
WIRE 480 112 480 80
WIRE 128 128 128 -16
WIRE -128 144 -192 144
WIRE 32 144 32 48
WIRE 32 144 -48 144
WIRE 96 144 32 144
WIRE 224 160 160 160
WIRE 400 160 400 128
WIRE 400 160 224 160
WIRE 528 160 528 80
WIRE 720 160 624 160
WIRE 832 160 832 32
WIRE 944 160 944 -368
WIRE 944 160 832 160
WIRE 1040 160 944 160
WIRE 96 176 64 176
WIRE 400 192 400 160
WIRE 720 192 720 160
WIRE 1040 192 1040 160
WIRE 64 224 64 176
WIRE -592 240 -592 176
WIRE 128 256 128 192
WIRE 160 256 128 256
WIRE 272 288 224 288
WIRE 400 288 400 256
WIRE 400 288 352 288
WIRE 480 288 480 192
WIRE 480 288 400 288
WIRE 560 288 480 288
WIRE 720 304 720 272
WIRE 1040 304 1040 272
WIRE 832 320 832 160
WIRE 224 336 224 288
WIRE 64 368 64 304
WIRE 128 368 128 256
WIRE -592 384 -592 320
WIRE 624 400 624 336
WIRE 784 400 624 400
WIRE 624 432 624 400
WIRE 832 480 832 416
WIRE 128 592 128 432
WIRE 224 592 224 416
WIRE 224 592 128 592
WIRE 624 592 624 512
WIRE 624 592 224 592
WIRE 832 592 832 560
WIRE 832 592 624 592
WIRE 832 656 832 592
FLAG 1040 304 0
FLAG -416 -64 0
FLAG -576 -288 +v
FLAG -576 32 -V
FLAG 832 -320 +v
FLAG 832 656 -V
FLAG -592 384 0
FLAG -592 176 Signal
FLAG -256 144 Signal
FLAG 64 368 0
FLAG 160 48 0
FLAG 160 320 0
FLAG 720 304 0
SYMBOL diode 208 96 R0
SYMATTR InstName D1
SYMBOL diode 208 32 R0
SYMATTR InstName D2
SYMBOL diode 208 160 R0
SYMATTR InstName D3
SYMBOL diode 208 224 R0
SYMATTR InstName D4
SYMBOL res 368 16 R90
WINDOW 0 0 56 VBottom 2
WINDOW 3 32 56 VTop 2
SYMATTR InstName R1
SYMATTR Value 1k
SYMBOL res 368 272 R90
WINDOW 0 0 56 VBottom 2
WINDOW 3 32 56 VTop 2
SYMATTR InstName R2
SYMATTR Value 1k
SYMBOL pot 464 96 R0
WINDOW 3 -623 -370 Right 2
SYMATTR Value Rtot=10K wiper=.305
SYMATTR InstName U2
SYMBOL npn 560 -16 R0
WINDOW 3 -49 -5 Left 2
SYMATTR InstName Q1
SYMATTR Value MJE340
SYMBOL pnp 560 336 M180
WINDOW 0 42 43 Left 2
WINDOW 3 -41 -8 Left 2
SYMATTR InstName Q2
SYMATTR Value MJE350
SYMBOL res 208 -112 R0
SYMATTR InstName R5
SYMATTR Value 10k
SYMBOL res 608 -208 R0
SYMATTR InstName R6
SYMATTR Value 470
SYMBOL res 208 320 R0
SYMATTR InstName R7
SYMATTR Value 10k
SYMBOL res 608 416 R0
SYMATTR InstName R8
SYMATTR Value 470
SYMBOL nmos 784 320 R0
SYMATTR InstName M1
SYMATTR Value IRF640
SYMBOL pmos 784 32 M180
SYMATTR InstName M2
SYMATTR Value IRF9640
SYMBOL res 816 -256 R0
SYMATTR InstName R9
SYMATTR Value 0.22
SYMBOL res 816 464 R0
SYMATTR InstName R10
SYMATTR Value 0.22
SYMBOL res 1024 176 R0
SYMATTR InstName R13
SYMATTR Value 8
SYMBOL res 16 -48 R0
SYMATTR InstName R14
SYMATTR Value 150k
SYMBOL res -32 128 R90
WINDOW 0 0 56 VBottom 2
WINDOW 3 32 56 VTop 2
SYMATTR InstName R15
SYMATTR Value 10k
SYMBOL cap -192 128 R90
WINDOW 0 0 32 VBottom 2
WINDOW 3 32 32 VTop 2
SYMATTR InstName C3
SYMATTR Value 47µF
SYMBOL voltage -576 -256 R0
WINDOW 123 0 0 Left 0
WINDOW 39 24 44 Left 2
SYMATTR SpiceLine Rser=0.1
SYMATTR InstName V1
SYMATTR Value 30
SYMBOL voltage -576 -128 R0
WINDOW 123 0 0 Left 0
WINDOW 39 24 44 Left 2
SYMATTR SpiceLine Rser=0.1
SYMATTR InstName V2
SYMATTR Value 30
SYMBOL voltage -592 224 R0
WINDOW 123 24 124 Left 2
SYMATTR InstName V3
SYMATTR Value SINE(0 1.4 25k)
SYMATTR SpiceLine Rser=10
SYMBOL OpAmps\\LT1055 128 96 R0
SYMATTR InstName U1
SYMBOL zener 144 -48 R180
WINDOW 0 24 64 Left 2
WINDOW 3 24 0 Left 2
SYMATTR InstName D5
SYMATTR Value BZX84C15L
SYMBOL zener 144 432 R180
WINDOW 0 24 64 Left 2
WINDOW 3 24 0 Left 2
SYMATTR InstName D6
SYMATTR Value BZX84C15L
SYMBOL cap 144 -16 R0
SYMATTR InstName C1
SYMATTR Value 100µF
SYMBOL cap 144 256 R0
SYMATTR InstName C5
SYMATTR Value 100µF
SYMBOL cap 384 64 R0
SYMATTR InstName C2
SYMATTR Value 10µF
SYMBOL cap 384 192 R0
SYMATTR InstName C4
SYMATTR Value 10µF
SYMBOL res 608 64 R0
SYMATTR InstName R3
SYMATTR Value 10
SYMBOL res 608 144 R0
SYMATTR InstName R4
SYMATTR Value 10
SYMBOL res 704 176 R0
SYMATTR InstName R11
SYMATTR Value 100
SYMBOL res 48 208 R0
SYMATTR InstName R16
SYMATTR Value 1k
TEXT -624 728 Left 2 !.tran 1m
